LAMMPS (22 Jul 2025 - Update 2)
KOKKOS mode with Kokkos version 4.6.2 is enabled
  will use up to 1 GPU(s) per node
package kokkos
# H100 GPU-Optimized LAMMPS input for EGaIn eutectic alloy
# Composition: Ga0.858In0.142
# Temperature: 150°C (423.15 K)
# Potential: Lennard-Jones only (baseline simulation)
# GPU: Using KOKKOS for H100 (Hopper architecture)

# ========== KOKKOS Initialization (CRITICAL: Must be first) ==========
# CRITICAL FIX: newton off prevents KOKKOS errors on H100
package         kokkos neigh full newton off

# ========== Initialization ==========
units           real
atom_style      atomic
boundary        p p p

# ========== Read structure ==========
read_data       inputs/initial_structure.data
Reading data file ...
  orthogonal box = (0 0 0) to (73.839453 73.839453 73.839453)
  reading atoms ...
  20000 atoms

# ========== Force field ==========
# LJ parameters from Amon et al. (2023)
# ε in kcal/mol, σ in Å
# Use KOKKOS-accelerated pair style (automatic with -sf kk flag)
pair_style      lj/cut/kk 12.0
pair_coeff      1 1 0.430 2.70    # Ga-Ga: ε=0.430 kcal/mol, σ=2.70 Å
pair_coeff      2 2 0.430 3.11    # In-In: ε=0.430 kcal/mol, σ=3.11 Å
pair_coeff      1 2 0.430 2.905   # Ga-In: ε=0.430 kcal/mol, σ=2.905 Å (Lorentz-Berthelot)

# ========== Settings ==========
mass            1 69.723    # Ga
mass            2 114.818   # In

# Optimized neighbor list for GPU
neighbor        2.0 bin
neigh_modify    delay 0 every 1 check yes binsize 4.0

# ========== Initial velocity ==========
velocity        all create 423.15 12345 dist gaussian

# ========== Thermodynamic output ==========
thermo          1000
thermo_style    custom step temp pe ke etotal press vol density cpu

# ========== Minimization (CRITICAL for random initial structure) ==========
print "========== Energy Minimization =========="
========== Energy Minimization ==========
# Minimize to remove overlapping atoms and bad geometry
minimize        1.0e-4 1.0e-6 10000 100000
Generated 0 of 1 mixed pair_coeff terms from geometric mixing rule
Step          Temp          PotEng         KinEng         TotEng         Press          Volume        Density          CPU
0   423.15         3.0042095e+19  25225.334      3.0042095e+19  2.0466751e+19  402592.25      6.2796667      0
Loop time of 0.272874 on 1 procs for 308 steps with 20000 atoms

Minimization stats:
  Stopping criterion = energy tolerance
  Energy initial, next-to-last, final =
  Force two-norm initial, final = 6.9276345e+21 13.267446
  Force max component initial, final = 4.3148088e+21 2.7348859
  Final line search alpha, max atom move = 0.01691431 0.046258707
  Iterations, force evaluations = 308 346

reset_timestep  0

# ========== RDF computation ==========
# Compute total and partial pair distribution functions
compute         myrdf all rdf 200 1 1 1 2 2 2 cutoff 12.0

# Time-average RDF output
fix             rdfout all ave/time 100 10 1000 c_myrdf[*] file rdf.dat mode vector

# ========== Equilibration (NVT) ==========
print "========== H100 GPU Equilibration =========="
========== H100 GPU Equilibration ==========

# Start with small timestep for stability
timestep        0.5

fix             nvt all nvt temp 423.15 423.15 100.0
run             10000
Generated 0 of 1 mixed pair_coeff terms from geometric mixing rule
Step          Temp          PotEng         KinEng         TotEng         Press          Volume        Density          CPU
0   423.15        -65130.792      25225.334     -39905.458      6723.9823      402592.25      6.2796667      0
Averages over the last 6 of 11 rows, steps 5000 to 10000:
Temp PotEng KinEng TotEng Press Volume Density
421.27 -41766.4 25113.2 -16653.2 26799 402592 6.27967
Loop time of 25.1074 on 1 procs for 10000 steps with 20000 atoms
