LAMMPS (22 Jul 2025 - Update 2)
KOKKOS mode with Kokkos version 4.6.2 is enabled
  will use up to 1 GPU(s) per node
package kokkos

# Grid Search Phase 2: Sigma_ratio=0.85, Epsilon_ratio=3.0
units           real
atom_style      atomic
boundary        p p p

read_data       inputs/data.ga_base_2types
Reading data file ...
  orthogonal box = (0 0 0) to (26.762877 26.762877 26.762877)
  reading atoms ...
  1000 atoms
replicate       2 2 3
Replication is creating a 2x2x3 = 12 times larger system...
  orthogonal box = (0 0 0) to (53.525753 53.525753 80.28863)
  12000 atoms
  replicate CPU = 0.003 seconds

# Randomize types (50% Type 2)
set             group all type/fraction 2 0.5 12345
Setting atom values ...
  6009 settings made for type/fraction

# Force Field
pair_style      lj/cut/kk 12.0
pair_coeff      1 1 0.4300 2.7000
pair_coeff      2 2 1.2900 2.2950
pair_coeff      1 2 0.7448 2.4975

# Settings
neighbor        2.0 bin
neigh_modify    delay 0 every 1 check yes
velocity        all create 293.0 1150 dist gaussian

thermo          1000
thermo_style    custom step temp press density

# Minimization
minimize        1.0e-4 1.0e-6 1000 10000
Generated 0 of 1 mixed pair_coeff terms from geometric mixing rule
Step          Temp          Press         Density
0   293            4.1286095e+15  6.0398583
Loop time of 0.130565 on 1 procs for 302 steps with 12000 atoms

Minimization stats:
  Stopping criterion = energy tolerance
  Energy initial, next-to-last, final =
  Force two-norm initial, final = 9.8962166e+16 18.947444
  Force max component initial, final = 2.2652674e+16 4.0469497
  Final line search alpha, max atom move = 0.0072639246 0.029396737
  Iterations, force evaluations = 302 325

reset_timestep  0

# Equilibration (5000 steps)
fix             nvt all nvt temp 293.0 293.0 100.0
run             5000
Generated 0 of 1 mixed pair_coeff terms from geometric mixing rule
Step          Temp          Press         Density
0   293           -7377.3042      6.0398583
Loop time of 1.09131 on 1 procs for 5000 steps with 12000 atoms

unfix           nvt
reset_timestep  0

# Production (10000 steps)
fix             nvt all nvt temp 293.0 293.0 100.0
compute         myrdf all rdf 200 1 1 2 2 1 2 cutoff 12.0
# Consistent averaging over full run
fix             rdfout all ave/time 50 200 10000 c_myrdf[*] file grid_outputs/out_s85_e300.rdf mode vector

run             10000
Generated 0 of 1 mixed pair_coeff terms from geometric mixing rule
Step          Temp          Press         Density
0   292.65678      664.3309       6.0398583
Averages over the last 6 of 11 rows, steps 5000 to 10000:
Temp Press Density
291.616 687.272 6.03986
Loop time of 34.745 on 1 procs for 10000 steps with 12000 atoms
