LAMMPS (22 Jul 2025 - Update 2)
KOKKOS mode with Kokkos version 4.6.2 is enabled
  will use up to 1 GPU(s) per node
package kokkos
# Three-Temperature Property Evaluation: 293K, 600K, 1000K
# FIXED VERSION: Proper fix ave/time syntax
# Estimated runtime: 15-20 minutes on H100

package         kokkos neigh full newton off

units           metal
atom_style      atomic
boundary        p p p

# System setup (108,000 atoms for better statistics)
lattice         fcc 4.30
Lattice spacing in x,y,z = 4.3 4.3 4.3
region          box block 0 30 0 30 0 30
create_box      1 box
Created orthogonal box = (0 0 0) to (129 129 129)
create_atoms    1 box
Created 108000 atoms

mass            1 69.723

pair_style      eam/alloy/kk
pair_coeff      * * Ga_belashchenko2012.eam.alloy Ga

neighbor        2.0 bin
neigh_modify    delay 0 every 1 check yes binsize 4.0

# ==========================================
# 0. Initial Melting (Stabilization)
# ==========================================
print "=== Initial System Setup ==="
=== Initial System Setup ===

velocity        all create 1500.0 12345 dist gaussian

thermo          500
thermo_style    custom step temp press pe ke etotal vol density cpu

# Conservative minimization
timestep        0.0001
minimize        1.0e-6 1.0e-8 10000 100000
Step          Temp          Press          PotEng         KinEng         TotEng         Volume        Density          CPU
0   1500          -34957.005     -302817.53      20939.95      -281877.58      2146689        5.824783       0
Loop time of 0.00665249 on 1 procs for 1 steps with 108000 atoms

Minimization stats:
  Stopping criterion = linesearch alpha is zero
  Energy initial, next-to-last, final =
  Force two-norm initial, final = 1.9633927e-12 1.9633927e-12
  Force max component initial, final = 8.5123781e-15 8.5123781e-15
  Final line search alpha, max atom move = 0.5 4.2561891e-15
  Iterations, force evaluations = 1 2

reset_timestep  0

# Melt at high temperature (NVT)
print ">>> Melting at 1500K (NVT)..."
>>> Melting at 1500K (NVT)...
fix             init_melt all nvt temp 1500.0 1500.0 0.1
run             10000
Step          Temp          Press          PotEng         KinEng         TotEng         Volume        Density          CPU
0   1500          -34957.005     -302817.53      20939.95      -281877.58      2146689        5.824783       0
Averages over the last 11 of 21 rows, steps 5000 to 10000:
Temp Press PotEng KinEng TotEng Volume Density
1283.67 16547.1 -288659 17920 -270739 2.14669e+06 5.82478
Loop time of 20.8672 on 1 procs for 10000 steps with 108000 atoms

unfix           init_melt

# Density relaxation (NPT)
timestep        0.001
print ">>> Density relaxation at 1500K (NPT)..."
>>> Density relaxation at 1500K (NPT)...
fix             init_npt all npt temp 1500.0 1500.0 0.1 iso 0.0 0.0 1.0
run             20000
Step          Temp          Press          PotEng         KinEng         TotEng         Volume        Density          CPU
10000   1455.6884      21316.226     -286960.97      20321.361     -266639.61      2146689        5.824783       0
Averages over the last 21 of 41 rows, steps 20000 to 30000:
Temp Press PotEng KinEng TotEng Volume Density
1498.99 -84.4336 -283661 20925.9 -262735 2.31447e+06 5.40252
Loop time of 46.1066 on 1 procs for 20000 steps with 108000 atoms

unfix           init_npt

# ==========================================
# Temperature 1: 293K (Room Temperature)
# ==========================================
print "========================================="
=========================================
print "=== TEMPERATURE 1: 293K (Room Temp) ==="
=== TEMPERATURE 1: 293K (Room Temp) ===
print "========================================="
=========================================

# Cool from 1500K to 293K
print ">>> Cooling to 293K..."
>>> Cooling to 293K...
fix             cool1 all npt temp 1500.0 293.0 0.1 iso 0.0 0.0 1.0
run             30000
Step          Temp          Press          PotEng         KinEng         TotEng         Volume        Density          CPU
30000   1502.524      -193.16316     -283620.77      20975.184     -262645.59      2316129.4      5.3986611      0
Averages over the last 31 of 61 rows, steps 45000 to 60000:
Temp Press PotEng KinEng TotEng Volume Density
600.003 -32.0475 -296043 8376.02 -287667 2.12036e+06 5.8997
Loop time of 69.4143 on 1 procs for 30000 steps with 108000 atoms

unfix           cool1

# Equilibrate at 293K (NPT)
print ">>> Equilibrating at 293K (NPT)..."
>>> Equilibrating at 293K (NPT)...
fix             eq1_npt all npt temp 293.0 293.0 0.1 iso 0.0 0.0 1.0
run             30000
Step          Temp          Press          PotEng         KinEng         TotEng         Volume        Density          CPU
60000   299.9566       9.2176052     -300774.85      4187.3841     -296587.47      2048374.1      6.1043525      0
Averages over the last 31 of 61 rows, steps 75000 to 90000:
Temp Press PotEng KinEng TotEng Volume Density
293.179 17.9758 -300998 4092.77 -296905 2.04587e+06 6.11182
Loop time of 71.1966 on 1 procs for 30000 steps with 108000 atoms

variable        dens1 equal density
Density at 293K: 6.11366097359989 g/cm^3 (Target: ~6.0-6.1)
unfix           eq1_npt

# Final equilibration (NVT)
print ">>> Final equilibration at 293K (NVT)..."
>>> Final equilibration at 293K (NVT)...
fix             eq1_nvt all nvt temp 293.0 293.0 0.1
run             20000
Step          Temp          Press          PotEng         KinEng         TotEng         Volume        Density          CPU
90000   293.10081      247.32786     -301000.99      4091.6775     -296909.32      2045255.3      6.113661       0
Averages over the last 21 of 41 rows, steps 100000 to 110000:
Temp Press PotEng KinEng TotEng Volume Density
293.126 186.186 -301003 4092.03 -296911 2.04526e+06 6.11366
Loop time of 44.8246 on 1 procs for 20000 steps with 108000 atoms

unfix           eq1_nvt

# Production run with data collection
print ">>> Production run at 293K..."
>>> Production run at 293K...

compute         msd1 all msd
compute         rdf1 all rdf 100 1 1 cutoff 8.0

dump            d1 all custom 2000 dump_293K.lammpstrj id type x y z
dump_modify     d1 sort id

fix             rdf1_out all ave/time 100 1 100 c_rdf1[*] file rdf_293K.dat mode vector
fix             msd1_out all ave/time 10 100 1000 c_msd1[4] file msd_293K.dat

# FIX: Use thermo keywords directly
fix             thermo1 all print 1 "$(step) $(temp) $(press) $(pe) $(ke) $(etotal) $(vol) $(density)"                 file thermo_293K.dat screen no title                 "# Step Temp Press PE KE TotEng Vol Density"

fix             prod1 all nvt temp 293.0 293.0 0.1
thermo          200
run             50000
Step          Temp          Press          PotEng         KinEng         TotEng         Volume        Density          CPU
110000   293.91085      163.6243      -301015.6       4102.9856     -296912.61      2045255.3      6.113661       0
Averages over the last 126 of 251 rows, steps 135000 to 160000:
Temp Press PotEng KinEng TotEng Volume Density
293.147 195.99 -301000 4092.32 -296908 2.04526e+06 6.11366
Loop time of 615.237 on 1 procs for 50000 steps with 108000 atoms

unfix           prod1

# Cleanup
undump          d1
unfix           rdf1_out
unfix           msd1_out
unfix           thermo1
uncompute       msd1
uncompute       rdf1

write_restart   restart_293K.restart
System init for write_restart ...

# Calculate and save summary
variable        temp_final equal temp
variable        dens_final equal density
variable        press_final equal press
variable        pe_final equal pe

print "=========================================" file results_summary.dat
=========================================
print "Results at 293K:" append results_summary.dat
Results at 293K:
  Temperature: 292.993390591944 K
  Density:     6.11366097359989 g/cm^3
  Pressure:    228.941053135187 bar
print "  PE/atom:     $(v_pe_final/108000) eV" append results_summary.dat
  PE/atom:     -2.7870078845678518675 eV
print " " append results_summary.dat

print ">>> 293K data saved!"
>>> 293K data saved!

# ==========================================
# Temperature 2: 600K (High Temperature Liquid)
# ==========================================
print "========================================="
=========================================
print "=== TEMPERATURE 2: 600K ==="
=== TEMPERATURE 2: 600K ===
print "========================================="
=========================================

# Heat from 293K to 600K
print ">>> Heating to 600K..."
>>> Heating to 600K...
fix             heat2 all npt temp 293.0 600.0 0.1 iso 0.0 0.0 1.0
thermo          500
run             30000
Step          Temp          Press          PotEng         KinEng         TotEng         Volume        Density          CPU
160000   292.99339      228.94105     -300996.85      4090.1779     -296906.67      2045255.3      6.113661       0
Averages over the last 31 of 61 rows, steps 175000 to 190000:
Temp Press PotEng KinEng TotEng Volume Density
522.715 33.0653 -297280 7297.08 -289983 2.09911e+06 5.95699
Loop time of 71.0179 on 1 procs for 30000 steps with 108000 atoms

unfix           heat2

# Equilibrate at 600K (NPT)
print ">>> Equilibrating at 600K (NPT)..."
>>> Equilibrating at 600K (NPT)...
fix             eq2_npt all npt temp 600.0 600.0 0.1 iso 0.0 0.0 1.0
run             30000
Step          Temp          Press          PotEng         KinEng         TotEng         Volume        Density          CPU
190000   598.90575     -132.58278     -296033.3       8360.7042     -287672.6       2120008.2      5.8980893      0
Averages over the last 31 of 61 rows, steps 205000 to 220000:
Temp Press PotEng KinEng TotEng Volume Density
599.933 7.78583 -296043 8375.04 -287668 2.11892e+06 5.90111
Loop time of 70.6943 on 1 procs for 30000 steps with 108000 atoms

variable        dens2 equal density
Density at 600K: 5.89809686729246 g/cm^3 (Expected: ~5.7-5.9)
unfix           eq2_npt

# Final equilibration (NVT)
print ">>> Final equilibration at 600K (NVT)..."
>>> Final equilibration at 600K (NVT)...
fix             eq2_nvt all nvt temp 600.0 600.0 0.1
run             20000
Step          Temp          Press          PotEng         KinEng         TotEng         Volume        Density          CPU
220000   599.76998     -153.56042     -296023.36      8372.7688     -287650.59      2120005.5      5.8980969      0
Averages over the last 21 of 41 rows, steps 230000 to 240000:
Temp Press PotEng KinEng TotEng Volume Density
600.615 -145.933 -296025 8384.57 -287641 2.12001e+06 5.8981
Loop time of 44.2224 on 1 procs for 20000 steps with 108000 atoms

unfix           eq2_nvt

# Production run
print ">>> Production run at 600K..."
>>> Production run at 600K...

compute         msd2 all msd
compute         rdf2 all rdf 100 1 1 cutoff 8.0

dump            d2 all custom 2000 dump_600K.lammpstrj id type x y z
dump_modify     d2 sort id

fix             rdf2_out all ave/time 100 1 100 c_rdf2[*] file rdf_600K.dat mode vector
fix             msd2_out all ave/time 10 100 1000 c_msd2[4] file msd_600K.dat

fix             thermo2 all print 1 "$(step) $(temp) $(press) $(pe) $(ke) $(etotal) $(vol) $(density)"                 file thermo_600K.dat screen no title                 "# Step Temp Press PE KE TotEng Vol Density"

fix             prod2 all nvt temp 600.0 600.0 0.1
thermo          200
run             50000
Step          Temp          Press          PotEng         KinEng         TotEng         Volume        Density          CPU
240000   599.95497     -76.223271     -296018.72      8375.3512     -287643.36      2120005.5      5.8980969      0
Averages over the last 126 of 251 rows, steps 265000 to 290000:
Temp Press PotEng KinEng TotEng Volume Density
600.151 -160.256 -296024 8378.09 -287646 2.12001e+06 5.8981
Loop time of 659.437 on 1 procs for 50000 steps with 108000 atoms

unfix           prod2

# Cleanup
undump          d2
unfix           rdf2_out
unfix           msd2_out
unfix           thermo2
uncompute       msd2
uncompute       rdf2

write_restart   restart_600K.restart
System init for write_restart ...

# Save summary
variable        temp_final equal temp
variable        dens_final equal density
variable        press_final equal press
variable        pe_final equal pe

print "Results at 600K:" append results_summary.dat
Results at 600K:
  Temperature: 600.027040842847 K
  Density:     5.89809686729246 g/cm^3
  Pressure:    -152.705148676465 bar
print "  PE/atom:     $(v_pe_final/108000) eV" append results_summary.dat
  PE/atom:     -2.7408179142500093128 eV
print " " append results_summary.dat

print ">>> 600K data saved!"
>>> 600K data saved!

# ==========================================
# Temperature 3: 1000K (Very High Temperature)
# ==========================================
print "========================================="
=========================================
print "=== TEMPERATURE 3: 1000K ==="
=== TEMPERATURE 3: 1000K ===
print "========================================="
=========================================

# Heat from 600K to 1000K
print ">>> Heating to 1000K..."
>>> Heating to 1000K...
fix             heat3 all npt temp 600.0 1000.0 0.1 iso 0.0 0.0 1.0
thermo          500
run             30000
Step          Temp          Press          PotEng         KinEng         TotEng         Volume        Density          CPU
290000   600.02704     -152.70515     -296008.33      8376.3573     -287631.98      2120005.5      5.8980969      0
Averages over the last 31 of 61 rows, steps 305000 to 320000:
Temp Press PotEng KinEng TotEng Volume Density
899.737 4.25226 -291558 12560.3 -278997 2.19275e+06 5.70266
Loop time of 70.8873 on 1 procs for 30000 steps with 108000 atoms

unfix           heat3

# Equilibrate at 1000K (NPT)
print ">>> Equilibrating at 1000K (NPT)..."
>>> Equilibrating at 1000K (NPT)...
fix             eq3_npt all npt temp 1000.0 1000.0 0.1 iso 0.0 0.0 1.0
run             30000
Step          Temp          Press          PotEng         KinEng         TotEng         Volume        Density          CPU
320000   997.53692      29.270498     -290175.35      13925.582     -276249.77      2215724.3      5.6433003      0
Averages over the last 31 of 61 rows, steps 335000 to 350000:
Temp Press PotEng KinEng TotEng Volume Density
999.494 -9.39067 -290130 13952.9 -276177 2.21534e+06 5.64428
Loop time of 70.7897 on 1 procs for 30000 steps with 108000 atoms

variable        dens3 equal density
Density at 1000K: 5.64133364052891 g/cm^3 (Expected: ~5.5-5.7)
unfix           eq3_npt

# Final equilibration (NVT)
print ">>> Final equilibration at 1000K (NVT)..."
>>> Final equilibration at 1000K (NVT)...
fix             eq3_nvt all nvt temp 1000.0 1000.0 0.1
run             20000
Step          Temp          Press          PotEng         KinEng         TotEng         Volume        Density          CPU
350000   1001.5795     -124.38088     -290059         13982.016     -276076.98      2216496.7      5.6413336      0
Averages over the last 21 of 41 rows, steps 360000 to 370000:
Temp Press PotEng KinEng TotEng Volume Density
1000.18 -146.195 -290118 13962.5 -276156 2.2165e+06 5.64133
Loop time of 42.8749 on 1 procs for 20000 steps with 108000 atoms

unfix           eq3_nvt

# Production run
print ">>> Production run at 1000K..."
>>> Production run at 1000K...

compute         msd3 all msd
compute         rdf3 all rdf 100 1 1 cutoff 8.0

dump            d3 all custom 2000 dump_1000K.lammpstrj id type x y z
dump_modify     d3 sort id

fix             rdf3_out all ave/time 100 1 100 c_rdf3[*] file rdf_1000K.dat mode vector
fix             msd3_out all ave/time 10 100 1000 c_msd3[4] file msd_1000K.dat

fix             thermo3 all print 1 "$(step) $(temp) $(press) $(pe) $(ke) $(etotal) $(vol) $(density)"                 file thermo_1000K.dat screen no title                 "# Step Temp Press PE KE TotEng Vol Density"

fix             prod3 all nvt temp 1000.0 1000.0 0.1
thermo          200
run             50000
Step          Temp          Press          PotEng         KinEng         TotEng         Volume        Density          CPU
370000   1001.5409     -203.69981     -290133.53      13981.477     -276152.05      2216496.7      5.6413336      0
Averages over the last 126 of 251 rows, steps 395000 to 420000:
Temp Press PotEng KinEng TotEng Volume Density
1000.23 -150.58 -290118 13963.2 -276155 2.2165e+06 5.64133
Loop time of 659.895 on 1 procs for 50000 steps with 108000 atoms

unfix           prod3

# Cleanup
undump          d3
unfix           rdf3_out
unfix           msd3_out
unfix           thermo3
uncompute       msd3
uncompute       rdf3

write_restart   restart_1000K.restart
System init for write_restart ...

# Save summary
variable        temp_final equal temp
variable        dens_final equal density
variable        press_final equal press
variable        pe_final equal pe

print "Results at 1000K:" append results_summary.dat
Results at 1000K:
  Temperature: 998.38804644192 K
  Density:     5.64133364052891 g/cm^3
  Pressure:    -359.791510006345 bar
print "  PE/atom:     $(v_pe_final/108000) eV" append results_summary.dat
  PE/atom:     -2.6868664347709163565 eV
print " " append results_summary.dat

print ">>> 1000K data saved!"
>>> 1000K data saved!

# ==========================================
# Final Summary
# ==========================================
print "========================================="
=========================================
print "=== 3-TEMPERATURE STUDY COMPLETED! ==="
=== 3-TEMPERATURE STUDY COMPLETED! ===
print "========================================="
=========================================
print ""

print "Generated files:"
Generated files:
print "  293K:  thermo_293K.dat, rdf_293K.dat, msd_293K.dat, dump_293K.lammpstrj"
  293K:  thermo_293K.dat, rdf_293K.dat, msd_293K.dat, dump_293K.lammpstrj
print "  600K:  thermo_600K.dat, rdf_600K.dat, msd_600K.dat, dump_600K.lammpstrj"
  600K:  thermo_600K.dat, rdf_600K.dat, msd_600K.dat, dump_600K.lammpstrj
print "  1000K: thermo_1000K.dat, rdf_1000K.dat, msd_1000K.dat, dump_1000K.lammpstrj"
  1000K: thermo_1000K.dat, rdf_1000K.dat, msd_1000K.dat, dump_1000K.lammpstrj
print ""

print "Summary: results_summary.dat"
Summary: results_summary.dat
print "========================================="
=========================================
