LAMMPS (22 Jul 2025 - Update 2)
# Binary Ga Experiment - Run 0 (Baseline) - CPU Version
# Temperature: 293K
# Ga1: sigma = 2.70, epsilon = 0.430
# Ga2: sigma = 2.70, epsilon = 0.430 (Same as Ga1)
# Cross: sigma = 2.70, epsilon = 0.430

# ========== Initialization ==========
units           real
atom_style      atomic
boundary        p p p

# ========== Read structure ==========
read_data       inputs/data.ga_binary
Reading data file ...
  orthogonal box = (0 0 0) to (26.762877 26.762877 26.762877)
  reading atoms ...
  1000 atoms

# ========== Force field ==========
pair_style      lj/cut 12.0

# Coefficients
pair_coeff      1 1 0.430 2.70
pair_coeff      2 2 0.430 2.70
pair_coeff      1 2 0.430 2.70

# ========== Settings ==========
neighbor        2.0 bin
neigh_modify    delay 0 every 1 check yes

# ========== Initial velocity ==========
velocity        all create 293.0 12345 dist gaussian

# ========== Thermodynamic output ==========
thermo          1000
thermo_style    custom step temp pe ke etotal press vol density cpu

# ========== Minimization ==========
print "========== Energy Minimization =========="
========== Energy Minimization ==========
minimize        1.0e-4 1.0e-6 10000 100000
Generated 0 of 1 mixed pair_coeff terms from geometric mixing rule
Step          Temp          PotEng         KinEng         TotEng         Press          Volume        Density          CPU
0   293            4.1675535e+14  872.50397      4.1675535e+14  5.9630291e+15  19168.952      6.0398583      0
Loop time of 0.809697 on 1 procs for 203 steps with 1000 atoms

Minimization stats:
  Stopping criterion = energy tolerance
  Energy initial, next-to-last, final =
  Force two-norm initial, final = 4.020161e+16 3.6474244
  Force max component initial, final = 2.2652674e+16 0.70325163
  Final line search alpha, max atom move = 0.090355175 0.063542424
  Iterations, force evaluations = 203 289

reset_timestep  0

# ========== RDF computation ==========
compute         myrdf all rdf 200 1 1 2 2 1 2 cutoff 12.0
fix             rdfout all ave/time 100 10 1000 c_myrdf[*] file outputs/rdf_binary_run0.dat mode vector

# ========== Equilibration (NVT) ==========
print "========== Equilibration =========="
========== Equilibration ==========
timestep        0.5
fix             nvt all nvt temp 293.0 293.0 100.0
run             5000
Generated 0 of 1 mixed pair_coeff terms from geometric mixing rule
Step          Temp          PotEng         KinEng         TotEng         Press          Volume        Density          CPU
0   293           -3304.994       872.50397     -2432.49        3196.41        19168.952      6.0398583      0
Loop time of 9.55855 on 1 procs for 5000 steps with 1000 atoms

unfix           nvt

timestep        2.0
fix             nvt all nvt temp 293.0 293.0 100.0
run             10000
Generated 0 of 1 mixed pair_coeff terms from geometric mixing rule
Step          Temp          PotEng         KinEng         TotEng         Press          Volume        Density          CPU
5000   296.79237     -2464.83        883.79699     -1581.033       18832.882      19168.952      6.0398583      0
Averages over the last 6 of 11 rows, steps 10000 to 15000:
Temp PotEng KinEng TotEng Press Volume Density
291.129 -2466.69 866.933 -1599.76 18721.5 19169 6.03986
Loop time of 19.7989 on 1 procs for 10000 steps with 1000 atoms
