LAMMPS (22 Jul 2025 - Update 2)
KOKKOS mode with Kokkos version 4.6.2 is enabled
  will use up to 1 GPU(s) per node
package kokkos
# Binary Ga Experiment - Run 1 (Size Difference 10%) - CPU Version
# Temperature: 293K
# Ga1: sigma = 2.70, epsilon = 0.430
# Ga2: sigma = 2.43, epsilon = 0.430 (sigma * 0.9)
# Cross: sigma = 2.565, epsilon = 0.430 (Arithmetic mean)

# ========== Initialization ==========
units           real
atom_style      atomic
boundary        p p p

# ========== Read structure ==========
read_data       inputs/data.ga_binary
Reading data file ...
  orthogonal box = (0 0 0) to (26.762877 26.762877 26.762877)
  reading atoms ...
  1000 atoms

# ========== Force field ==========
pair_style      lj/cut 12.0

# Coefficients
# type1 type2 epsilon sigma
# Ga1 - Ga1
pair_coeff      1 1 0.430 2.70
# Ga2 - Ga2
pair_coeff      2 2 0.430 2.43
# Ga1 - Ga2 (Arithmetic mean)
pair_coeff      1 2 0.430 2.565

# ========== Settings ==========
neighbor        2.0 bin
neigh_modify    delay 0 every 1 check yes

# ========== Initial velocity ==========
velocity        all create 293.0 12345 dist gaussian

# ========== Thermodynamic output ==========
thermo          1000
thermo_style    custom step temp pe ke etotal press vol density cpu

# ========== Minimization ==========
print "========== Energy Minimization =========="
========== Energy Minimization ==========
minimize        1.0e-4 1.0e-6 10000 100000
Generated 0 of 1 mixed pair_coeff terms from geometric mixing rule
Step          Temp          PotEng         KinEng         TotEng         Press          Volume        Density          CPU
0   293            4.1164637e+14  872.50397      4.1164637e+14  5.8899286e+15  19168.952      6.0398583      0
Loop time of 0.0800399 on 1 procs for 183 steps with 1000 atoms

Minimization stats:
  Stopping criterion = energy tolerance
  Energy initial, next-to-last, final =
  Force two-norm initial, final = 4.0197003e+16 2.9829599
  Force max component initial, final = 2.2652674e+16 0.89185346
  Final line search alpha, max atom move = 0.075875738 0.06767004
  Iterations, force evaluations = 183 253

reset_timestep  0

# ========== RDF computation ==========
# Compute total pair distribution function
compute         myrdf all rdf 200 1 1 2 2 1 2 cutoff 12.0
# Output: bin, r, g_11, g_22, g_12

# Time-average RDF output
fix             rdfout all ave/time 100 10 1000 c_myrdf[*] file outputs/rdf_binary_run1.dat mode vector

# ========== Equilibration (NVT) ==========
print "========== Equilibration =========="
========== Equilibration ==========
timestep        0.5
fix             nvt all nvt temp 293.0 293.0 100.0
run             5000
Generated 0 of 1 mixed pair_coeff terms from geometric mixing rule
Step          Temp          PotEng         KinEng         TotEng         Press          Volume        Density          CPU
0   293           -3109.7568      872.50397     -2237.2528     -4804.2859      19168.952      6.0398583      0
Loop time of 1.63013 on 1 procs for 5000 steps with 1000 atoms

unfix           nvt

timestep        2.0
fix             nvt all nvt temp 293.0 293.0 100.0
run             10000
Generated 0 of 1 mixed pair_coeff terms from geometric mixing rule
Step          Temp          PotEng         KinEng         TotEng         Press          Volume        Density          CPU
5000   298.49108     -2374.9769      888.85547     -1486.1214      8961.3154      19168.952      6.0398583      0
Averages over the last 6 of 11 rows, steps 10000 to 15000:
Temp PotEng KinEng TotEng Press Volume Density
297.099 -2367.76 884.711 -1483.05 9179.03 19169 6.03986
Loop time of 5.37403 on 1 procs for 10000 steps with 1000 atoms

# ========== Production (NVT) ==========
print "========== Production run =========="
========== Production run ==========

# Reset RDF for production
uncompute       myrdf
compute         myrdf all rdf 200 1 1 2 2 1 2 cutoff 12.0
unfix           rdfout
fix             rdfout all ave/time 100 10 5000 c_myrdf[*] file outputs/rdf_binary_run1.dat mode vector

# Dump trajectory
dump            1 all custom 1000 outputs/dump.binary_run1.lammpstrj id type x y z

run             50000
Generated 0 of 1 mixed pair_coeff terms from geometric mixing rule
Step          Temp          PotEng         KinEng         TotEng         Press          Volume        Density          CPU
15000   291.09651     -2403.7681      866.8357      -1536.9324      8334.6273      19168.952      6.0398583      0
Averages over the last 26 of 51 rows, steps 40000 to 65000:
Temp PotEng KinEng TotEng Press Volume Density
291.541 -2376.27 868.159 -1508.11 8976.82 19169 6.03986
Loop time of 13.7075 on 1 procs for 50000 steps with 1000 atoms

# ========== Finalize ==========
write_data      outputs/final_structure_binary_run1.data
System init for write_data ...
Generated 0 of 1 mixed pair_coeff terms from geometric mixing rule
